216
Load this file in VMD
C	     0.000000	     0.000000	     0.000000
C	     0.000000	     1.405721	     1.405721
C	     1.405721	     0.000000	     1.405721
C	     1.405721	     1.405721	     0.000000
C	     2.811442	     0.000000	     0.000000
C	     2.811442	     1.405721	     1.405721
C	     4.217163	     0.000000	     1.405721
C	     4.217163	     1.405721	     0.000000
C	     5.622884	     0.000000	     0.000000
C	     5.622884	     1.405721	     1.405721
C	     7.028606	     0.000000	     1.405721
C	     7.028606	     1.405721	     0.000000
C	     0.000000	     2.811442	     0.000000
C	     0.000000	     4.217163	     1.405721
C	     1.405721	     2.811442	     1.405721
C	     1.405721	     4.217163	     0.000000
C	     2.811442	     2.811442	     0.000000
C	     2.811442	     4.217163	     1.405721
C	     4.217163	     2.811442	     1.405721
C	     4.217163	     4.217163	     0.000000
C	     5.622884	     2.811442	     0.000000
C	     5.622884	     4.217163	     1.405721
C	     7.028606	     2.811442	     1.405721
C	     7.028606	     4.217163	     0.000000
C	     0.000000	     5.622884	     0.000000
C	     0.000000	     7.028606	     1.405721
C	     1.405721	     5.622884	     1.405721
C	     1.405721	     7.028606	     0.000000
C	     2.811442	     5.622884	     0.000000
C	     2.811442	     7.028606	     1.405721
C	     4.217163	     5.622884	     1.405721
C	     4.217163	     7.028606	     0.000000
C	     5.622884	     5.622884	     0.000000
C	     5.622884	     7.028606	     1.405721
C	     7.028606	     5.622884	     1.405721
C	     7.028606	     7.028606	     0.000000
C	     0.000000	     0.000000	     2.811442
C	     0.000000	     1.405721	     4.217163
C	     1.405721	     0.000000	     4.217163
C	     1.405721	     1.405721	     2.811442
C	     2.811442	     0.000000	     2.811442
C	     2.811442	     1.405721	     4.217163
C	     4.217163	     0.000000	     4.217163
C	     4.217163	     1.405721	     2.811442
C	     5.622884	     0.000000	     2.811442
C	     5.622884	     1.405721	     4.217163
C	     7.028606	     0.000000	     4.217163
C	     7.028606	     1.405721	     2.811442
C	     0.000000	     2.811442	     2.811442
C	     0.000000	     4.217163	     4.217163
C	     1.405721	     2.811442	     4.217163
C	     1.405721	     4.217163	     2.811442
C	     2.811442	     2.811442	     2.811442
C	     2.811442	     4.217163	     4.217163
C	     4.217163	     2.811442	     4.217163
C	     4.217163	     4.217163	     2.811442
C	     5.622884	     2.811442	     2.811442
C	     5.622884	     4.217163	     4.217163
C	     7.028606	     2.811442	     4.217163
C	     7.028606	     4.217163	     2.811442
C	     0.000000	     5.622884	     2.811442
C	     0.000000	     7.028606	     4.217163
C	     1.405721	     5.622884	     4.217163
C	     1.405721	     7.028606	     2.811442
C	     2.811442	     5.622884	     2.811442
C	     2.811442	     7.028606	     4.217163
C	     4.217163	     5.622884	     4.217163
C	     4.217163	     7.028606	     2.811442
C	     5.622884	     5.622884	     2.811442
C	     5.622884	     7.028606	     4.217163
C	     7.028606	     5.622884	     4.217163
C	     7.028606	     7.028606	     2.811442
C	     0.000000	     0.000000	     5.622884
C	     0.000000	     1.405721	     7.028606
C	     1.405721	     0.000000	     7.028606
C	     1.405721	     1.405721	     5.622884
C	     2.811442	     0.000000	     5.622884
C	     2.811442	     1.405721	     7.028606
C	     4.217163	     0.000000	     7.028606
C	     4.217163	     1.405721	     5.622884
C	     5.622884	     0.000000	     5.622884
C	     5.622884	     1.405721	     7.028606
C	     7.028606	     0.000000	     7.028606
C	     7.028606	     1.405721	     5.622884
C	     0.000000	     2.811442	     5.622884
C	     0.000000	     4.217163	     7.028606
C	     1.405721	     2.811442	     7.028606
C	     1.405721	     4.217163	     5.622884
C	     2.811442	     2.811442	     5.622884
C	     2.811442	     4.217163	     7.028606
C	     4.217163	     2.811442	     7.028606
C	     4.217163	     4.217163	     5.622884
C	     5.622884	     2.811442	     5.622884
C	     5.622884	     4.217163	     7.028606
C	     7.028606	     2.811442	     7.028606
C	     7.028606	     4.217163	     5.622884
C	     0.000000	     5.622884	     5.622884
C	     0.000000	     7.028606	     7.028606
C	     1.405721	     5.622884	     7.028606
C	     1.405721	     7.028606	     5.622884
C	     2.811442	     5.622884	     5.622884
C	     2.811442	     7.028606	     7.028606
C	     4.217163	     5.622884	     7.028606
C	     4.217163	     7.028606	     5.622884
C	     5.622884	     5.622884	     5.622884
C	     5.622884	     7.028606	     7.028606
C	     7.028606	     5.622884	     7.028606
C	     7.028606	     7.028606	     5.622884
C	     0.329000	     0.000000	     0.000000
C	     0.329000	     1.405721	     1.405721
C	     1.734721	     0.000000	     1.405721
C	     1.734721	     1.405721	     0.000000
C	     3.140442	     0.000000	     0.000000
C	     3.140442	     1.405721	     1.405721
C	     4.546163	     0.000000	     1.405721
C	     4.546163	     1.405721	     0.000000
C	     5.951884	     0.000000	     0.000000
C	     5.951884	     1.405721	     1.405721
C	     7.357606	     0.000000	     1.405721
C	     7.357606	     1.405721	     0.000000
C	     0.329000	     2.811442	     0.000000
C	     0.329000	     4.217163	     1.405721
C	     1.734721	     2.811442	     1.405721
C	     1.734721	     4.217163	     0.000000
C	     3.140442	     2.811442	     0.000000
C	     3.140442	     4.217163	     1.405721
C	     4.546163	     2.811442	     1.405721
C	     4.546163	     4.217163	     0.000000
C	     5.951884	     2.811442	     0.000000
C	     5.951884	     4.217163	     1.405721
C	     7.357606	     2.811442	     1.405721
C	     7.357606	     4.217163	     0.000000
C	     0.329000	     5.622884	     0.000000
C	     0.329000	     7.028606	     1.405721
C	     1.734721	     5.622884	     1.405721
C	     1.734721	     7.028606	     0.000000
C	     3.140442	     5.622884	     0.000000
C	     3.140442	     7.028606	     1.405721
C	     4.546163	     5.622884	     1.405721
C	     4.546163	     7.028606	     0.000000
C	     5.951884	     5.622884	     0.000000
C	     5.951884	     7.028606	     1.405721
C	     7.357606	     5.622884	     1.405721
C	     7.357606	     7.028606	     0.000000
C	     0.329000	     0.000000	     2.811442
C	     0.329000	     1.405721	     4.217163
C	     1.734721	     0.000000	     4.217163
C	     1.734721	     1.405721	     2.811442
C	     3.140442	     0.000000	     2.811442
C	     3.140442	     1.405721	     4.217163
C	     4.546163	     0.000000	     4.217163
C	     4.546163	     1.405721	     2.811442
C	     5.951884	     0.000000	     2.811442
C	     5.951884	     1.405721	     4.217163
C	     7.357606	     0.000000	     4.217163
C	     7.357606	     1.405721	     2.811442
C	     0.329000	     2.811442	     2.811442
C	     0.329000	     4.217163	     4.217163
C	     1.734721	     2.811442	     4.217163
C	     1.734721	     4.217163	     2.811442
C	     3.140442	     2.811442	     2.811442
C	     3.140442	     4.217163	     4.217163
C	     4.546163	     2.811442	     4.217163
C	     4.546163	     4.217163	     2.811442
C	     5.951884	     2.811442	     2.811442
C	     5.951884	     4.217163	     4.217163
C	     7.357606	     2.811442	     4.217163
C	     7.357606	     4.217163	     2.811442
C	     0.329000	     5.622884	     2.811442
C	     0.329000	     7.028606	     4.217163
C	     1.734721	     5.622884	     4.217163
C	     1.734721	     7.028606	     2.811442
C	     3.140442	     5.622884	     2.811442
C	     3.140442	     7.028606	     4.217163
C	     4.546163	     5.622884	     4.217163
C	     4.546163	     7.028606	     2.811442
C	     5.951884	     5.622884	     2.811442
C	     5.951884	     7.028606	     4.217163
C	     7.357606	     5.622884	     4.217163
C	     7.357606	     7.028606	     2.811442
C	     0.329000	     0.000000	     5.622884
C	     0.329000	     1.405721	     7.028606
C	     1.734721	     0.000000	     7.028606
C	     1.734721	     1.405721	     5.622884
C	     3.140442	     0.000000	     5.622884
C	     3.140442	     1.405721	     7.028606
C	     4.546163	     0.000000	     7.028606
C	     4.546163	     1.405721	     5.622884
C	     5.951884	     0.000000	     5.622884
C	     5.951884	     1.405721	     7.028606
C	     7.357606	     0.000000	     7.028606
C	     7.357606	     1.405721	     5.622884
C	     0.329000	     2.811442	     5.622884
C	     0.329000	     4.217163	     7.028606
C	     1.734721	     2.811442	     7.028606
C	     1.734721	     4.217163	     5.622884
C	     3.140442	     2.811442	     5.622884
C	     3.140442	     4.217163	     7.028606
C	     4.546163	     2.811442	     7.028606
C	     4.546163	     4.217163	     5.622884
C	     5.951884	     2.811442	     5.622884
C	     5.951884	     4.217163	     7.028606
C	     7.357606	     2.811442	     7.028606
C	     7.357606	     4.217163	     5.622884
C	     0.329000	     5.622884	     5.622884
C	     0.329000	     7.028606	     7.028606
C	     1.734721	     5.622884	     7.028606
C	     1.734721	     7.028606	     5.622884
C	     3.140442	     5.622884	     5.622884
C	     3.140442	     7.028606	     7.028606
C	     4.546163	     5.622884	     7.028606
C	     4.546163	     7.028606	     5.622884
C	     5.951884	     5.622884	     5.622884
C	     5.951884	     7.028606	     7.028606
C	     7.357606	     5.622884	     7.028606
C	     7.357606	     7.028606	     5.622884
